reduced_networks/ieee8500/41pct/dss/Loads.dss
! Original load models relocated and rebased in per unit
new Load.138236b0 Phases=2 Bus1="x2673305b.1.2" kV=0.208 Status="Variable" Model=1 Conn="wye" kW=3.89 PF=0.97 VMinpu=0.88
new Load.138237b0 Phases=2 Bus1="x3048196b.1.2" kV=0.208 Status="Variable" Model=1 Conn="wye" kW=5.84 PF=0.97 VMinpu=0.88
new Load.138258c0 Phases=2 Bus1="x2991911c.1.2" kV=0.208 Status="Variable" Model=1 Conn="wye" kW=6.1 PF=0.97 VMinpu=0.88
new Load.138259c0 Phases=2 Bus1="x2973158c.1.2" kV=0.208 Status="Variable" Model=1 Conn="wye" kW=6.1 PF=0.97 VMinpu=0.88
new Load.138260a0 Phases=2 Bus1="x3048208a.1.2" kV=0.208 Status="Variable" Model=1 Conn="wye" kW=5.32 PF=0.97 VMinpu=0.88
new Load.138262a0 Phases=2 Bus1="x3029502a.1.2" kV=0.208 Status="Variable" Model=1 Conn="wye" kW=17.74 PF=0.97 VMinpu=0.88
new Load.138264b0 Phases=2 Bus1="x3104125b.1.2" kV=0.208 Status="Variable" Model=1 Conn="wye" kW=9.73 PF=0.97 VMinpu=0.88
new Load.138265a0 Phases=2 Bus1="x3160107a.1.2" kV=0.208 Status="Variable" Model=1 Conn="wye" kW=8.869999999999999 PF=0.97 VMinpu=0.88
new Load.138294b0 Phases=2 Bus1="x2785516b.1.2" kV=0.208 Status="Variable" Model=1 Conn="wye" kW=5.84 PF=0.97 VMinpu=0.88
new Load.138313a0 Phases=2 Bus1="x3141400a.1.2" kV=0.208 Status="Variable" Model=1 Conn="wye" kW=3.55 PF=0.97 VMinpu=0.88
new Load.138342c0 Phases=2 Bus1="x2897775c.1.2" kV=0.208 Status="Variable" Model=1 Conn="wye" kW=10.17 PF=0.97 VMinpu=0.88
new Load.138343c0 Phases=2 Bus1="x3010565c.1.2" kV=0.208 Status="Variable" Model=1 Conn="wye" kW=4.07 PF=0.97 VMinpu=0.88
new Load.138346c0 Phases=2 Bus1="x2916609c.1.2" kV=0.208 Status="Variable" Model=1 Conn="wye" kW=6.1 PF=0.97 VMinpu=0.88
new Load.138371c0 Phases=2 Bus1="x2879073c.1.2" kV=0.208 Status="Variable" Model=1 Conn="wye" kW=6.1 PF=0.97 VMinpu=0.88
new Load.138372c0 Phases=2 Bus1="x3104126c.1.2" kV=0.208 Status="Variable" Model=1 Conn="wye" kW=4.07 PF=0.97 VMinpu=0.88
new Load.138373c0 Phases=2 Bus1="x3029503c.1.2" kV=0.208 Status="Variable" Model=1 Conn="wye" kW=6.1 PF=0.97 VMinpu=0.88
new Load.138374c0 Phases=2 Bus1="x2691950c.1.2" kV=0.208 Status="Variable" Model=1 Conn="wye" kW=10.17 PF=0.97 VMinpu=0.88
new Load.138379c0 Phases=2 Bus1="x2691951c.1.2" kV=0.208 Status="Variable" Model=1 Conn="wye" kW=10.17 PF=0.97 VMinpu=0.88
new Load.138380c0 Phases=2 Bus1="x2879076c.1.2" kV=0.208 Status="Variable" Model=1 Conn="wye" kW=4.07 PF=0.97 VMinpu=0.88
new Load.138404c0 Phases=2 Bus1="x2841630c.1.2" kV=0.208 Status="Variable" Model=1 Conn="wye" kW=10.17 PF=0.97 VMinpu=0.88
new Load.138405c0 Phases=2 Bus1="x2841629c.1.2" kV=0.208 Status="Variable" Model=1 Conn="wye" kW=15.26 PF=0.97 VMinpu=0.88
new Load.138412c0 Phases=2 Bus1="x2785523c.1.2" kV=0.208 Status="Variable" Model=1 Conn="wye" kW=6.1 PF=0.97 VMinpu=0.88
new Load.138413c0 Phases=2 Bus1="x3216347c.1.2" kV=0.208 Status="Variable" Model=1 Conn="wye" kW=6.1 PF=0.97 VMinpu=0.88
new Load.138416c0 Phases=2 Bus1="x3141388c.1.2" kV=0.208 Status="Variable" Model=1 Conn="wye" kW=4.07 PF=0.97 VMinpu=0.88
new Load.138464c0 Phases=2 Bus1="x3066801c.1.2" kV=0.208 Status="Variable" Model=1 Conn="wye" kW=4.07 PF=0.97 VMinpu=0.88
new Load.138465c0 Phases=2 Bus1="x2879055c.1.2" kV=0.208 Status="Variable" Model=1 Conn="wye" kW=4.07 PF=0.97 VMinpu=0.88
new Load.138466c0 Phases=2 Bus1="x2973144c.1.2" kV=0.208 Status="Variable" Model=1 Conn="wye" kW=10.17 PF=0.97 VMinpu=0.88
new Load.138469c0 Phases=2 Bus1="x2785518c.1.2" kV=0.208 Status="Variable" Model=1 Conn="wye" kW=6.1 PF=0.97 VMinpu=0.88
new Load.138470c0 Phases=2 Bus1="x2766717c.1.2" kV=0.208 Status="Variable" Model=1 Conn="wye" kW=4.07 PF=0.97 VMinpu=0.88
new Load.138472c0 Phases=2 Bus1="x2673309c.1.2" kV=0.208 Status="Variable" Model=1 Conn="wye" kW=10.17 PF=0.97 VMinpu=0.88
new Load.138560a0 Phases=2 Bus1="x3104113a.1.2" kV=0.208 Status="Variable" Model=1 Conn="wye" kW=8.869999999999999 PF=0.97 VMinpu=0.88
new Load.138561a0 Phases=2 Bus1="x3104121a.1.2" kV=0.208 Status="Variable" Model=1 Conn="wye" kW=8.869999999999999 PF=0.97 VMinpu=0.88
new Load.138562a0 Phases=2 Bus1="x2673310a.1.2" kV=0.208 Status="Variable" Model=1 Conn="wye" kW=8.869999999999999 PF=0.97 VMinpu=0.88
new Load.138563a0 Phases=2 Bus1="x2916627a.1.2" kV=0.208 Status="Variable" Model=1 Conn="wye" kW=8.869999999999999 PF=0.97 VMinpu=0.88
new Load.138564a0 Phases=2 Bus1="x2804283a.1.2" kV=0.208 Status="Variable" Model=1 Conn="wye" kW=8.869999999999999 PF=0.97 VMinpu=0.88
new Load.138565a0 Phases=2 Bus1="x3104122a.1.2" kV=0.208 Status="Variable" Model=1 Conn="wye" kW=8.869999999999999 PF=0.97 VMinpu=0.88
new Load.138566a0 Phases=2 Bus1="x2785519a.1.2" kV=0.208 Status="Variable" Model=1 Conn="wye" kW=8.869999999999999 PF=0.97 VMinpu=0.88
new Load.138567a0 Phases=2 Bus1="x2748129a.1.2" kV=0.208 Status="Variable" Model=1 Conn="wye" kW=13.3 PF=0.97 VMinpu=0.88
new Load.138569a0 Phases=2 Bus1="x2973151a.1.2" kV=0.208 Status="Variable" Model=1 Conn="wye" kW=5.32 PF=0.97 VMinpu=0.88
new Load.138570a0 Phases=2 Bus1="x2748146a.1.2" kV=0.208 Status="Variable" Model=1 Conn="wye" kW=5.32 PF=0.97 VMinpu=0.88
new Load.138571a0 Phases=2 Bus1="x2991913a.1.2" kV=0.208 Status="Variable" Model=1 Conn="wye" kW=5.32 PF=0.97 VMinpu=0.88
new Load.138573a0 Phases=2 Bus1="x3235253a.1.2" kV=0.208 Status="Variable" Model=1 Conn="wye" kW=8.869999999999999 PF=0.97 VMinpu=0.88
new Load.138574a0 Phases=2 Bus1="x2991907a.1.2" kV=0.208 Status="Variable" Model=1 Conn="wye" kW=8.869999999999999 PF=0.97 VMinpu=0.88
new Load.138581a0 Phases=2 Bus1="x2879064a.1.2" kV=0.208 Status="Variable" Model=1 Conn="wye" kW=8.869999999999999 PF=0.97 VMinpu=0.88
new Load.138585c0 Phases=2 Bus1="x3197637c.1.2" kV=0.208 Status="Variable" Model=1 Conn="wye" kW=4.07 PF=0.97 VMinpu=0.88
new Load.138586c0 Phases=2 Bus1="x2860487c.1.2" kV=0.208 Status="Variable" Model=1 Conn="wye" kW=6.1 PF=0.97 VMinpu=0.88
new Load.138641c0 Phases=2 Bus1="x2841638c.1.2" kV=0.208 Status="Variable" Model=1 Conn="wye" kW=6.1 PF=0.97 VMinpu=0.88
new Load.138642a0 Phases=2 Bus1="x3235256a.1.2" kV=0.208 Status="Variable" Model=1 Conn="wye" kW=5.32 PF=0.97 VMinpu=0.88
new Load.138644a0 Phases=2 Bus1="x3197630a.1.2" kV=0.208 Status="Variable" Model=1 Conn="wye" kW=8.869999999999999 PF=0.97 VMinpu=0.88
new Load.138645b0 Phases=2 Bus1="x3104120b.1.2" kV=0.208 Status="Variable" Model=1 Conn="wye" kW=5.84 PF=0.97 VMinpu=0.88
new Load.138646a0 Phases=2 Bus1="x2804251a.1.2" kV=0.208 Status="Variable" Model=1 Conn="wye" kW=3.55 PF=0.97 VMinpu=0.88
new Load.138647c0 Phases=2 Bus1="x3254210c.1.2" kV=0.208 Status="Variable" Model=1 Conn="wye" kW=6.1 PF=0.97 VMinpu=0.88
new Load.138649a0 Phases=2 Bus1="x3048206a.1.2" kV=0.208 Status="Variable" Model=1 Conn="wye" kW=8.869999999999999 PF=0.97 VMinpu=0.88
new Load.138650c0 Phases=2 Bus1="x2710510c.1.2" kV=0.208 Status="Variable" Model=1 Conn="wye" kW=4.07 PF=0.97 VMinpu=0.88
new Load.138651c0 Phases=2 Bus1="x3197628c.1.2" kV=0.208 Status="Variable" Model=1 Conn="wye" kW=10.17 PF=0.97 VMinpu=0.88
new Load.138652c0 Phases=2 Bus1="x2766718c.1.2" kV=0.208 Status="Variable" Model=1 Conn="wye" kW=15.26 PF=0.97 VMinpu=0.88
new Load.138655a0 Phases=2 Bus1="x3010556a.1.2" kV=0.208 Status="Variable" Model=1 Conn="wye" kW=5.32 PF=0.97 VMinpu=0.88
new Load.138679a0 Phases=2 Bus1="x2710520a.1.2" kV=0.208 Status="Variable" Model=1 Conn="wye" kW=5.32 PF=0.97 VMinpu=0.88
new Load.138680a0 Phases=2 Bus1="x2710521a.1.2" kV=0.208 Status="Variable" Model=1 Conn="wye" kW=8.869999999999999 PF=0.97 VMinpu=0.88
new Load.138684a0 Phases=2 Bus1="x3085396a.1.2" kV=0.208 Status="Variable" Model=1 Conn="wye" kW=8.869999999999999 PF=0.97 VMinpu=0.88
new Load.138685a0 Phases=2 Bus1="x3122813a.1.2" kV=0.208 Status="Variable" Model=1 Conn="wye" kW=5.32 PF=0.97 VMinpu=0.88
new Load.138716c0 Phases=2 Bus1="x3254219c.1.2" kV=0.208 Status="Variable" Model=1 Conn="wye" kW=10.17 PF=0.97 VMinpu=0.88
new Load.138717c0 Phases=2 Bus1="x3254220c.1.2" kV=0.208 Status="Variable" Model=1 Conn="wye" kW=10.17 PF=0.97 VMinpu=0.88
new Load.138718c0 Phases=2 Bus1="x3104134c.1.2" kV=0.208 Status="Variable" Model=1 Conn="wye" kW=10.17 PF=0.97 VMinpu=0.88
new Load.138719a0 Phases=2 Bus1="x2860490a.1.2" kV=0.208 Status="Variable" Model=1 Conn="wye" kW=8.869999999999999 PF=0.97 VMinpu=0.88
new Load.138720a0 Phases=2 Bus1="x3254218a.1.2" kV=0.208 Status="Variable" Model=1 Conn="wye" kW=8.869999999999999 PF=0.97 VMinpu=0.88
new Load.138751b0 Phases=2 Bus1="x3066818b.1.2" kV=0.208 Status="Variable" Model=1 Conn="wye" kW=9.73 PF=0.97 VMinpu=0.88
new Load.138752b0 Phases=2 Bus1="x2785528b.1.2" kV=0.208 Status="Variable" Model=1 Conn="wye" kW=5.84 PF=0.97 VMinpu=0.88
new Load.138753b0 Phases=2 Bus1="x2748130b.1.2" kV=0.208 Status="Variable" Model=1 Conn="wye" kW=9.73 PF=0.97 VMinpu=0.88
new Load.138754b0 Phases=2 Bus1="x3254212b.1.2" kV=0.208 Status="Variable" Model=1 Conn="wye" kW=14.59 PF=0.97 VMinpu=0.88
new Load.138755b0 Phases=2 Bus1="x2785520b.1.2" kV=0.208 Status="Variable" Model=1 Conn="wye" kW=3.89 PF=0.97 VMinpu=0.88
new Load.138769a0 Phases=2 Bus1="x2729411a.1.2" kV=0.208 Status="Variable" Model=1 Conn="wye" kW=3.55 PF=0.97 VMinpu=0.88
new Load.138770a0 Phases=2 Bus1="x2897781a.1.2" kV=0.208 Status="Variable" Model=1 Conn="wye" kW=3.55 PF=0.97 VMinpu=0.88
new Load.138771a0 Phases=2 Bus1="x3197644a.1.2" kV=0.208 Status="Variable" Model=1 Conn="wye" kW=5.32 PF=0.97 VMinpu=0.88
new Load.138776c0 Phases=2 Bus1="x3010566c.1.2" kV=0.208 Status="Variable" Model=1 Conn="wye" kW=6.1 PF=0.97 VMinpu=0.88
new Load.138796b0 Phases=2 Bus1="x3236011b.1.2" kV=0.208 Status="Variable" Model=1 Conn="wye" kW=5.84 PF=0.97 VMinpu=0.88
new Load.138797b0 Phases=2 Bus1="x3198358b.1.2" kV=0.208 Status="Variable" Model=1 Conn="wye" kW=14.59 PF=0.97 VMinpu=0.88
new Load.138798b0 Phases=2 Bus1="x3104859b.1.2" kV=0.208 Status="Variable" Model=1 Conn="wye" kW=5.84 PF=0.97 VMinpu=0.88
new Load.157715b0 Phases=2 Bus1="x2936275b.1.2" kV=0.208 Status="Variable" Model=1 Conn="wye" kW=3.89 PF=0.97 VMinpu=0.88
new Load.157716b0 Phases=2 Bus1="x3179674b.1.2" kV=0.208 Status="Variable" Model=1 Conn="wye" kW=9.73 PF=0.97 VMinpu=0.88
new Load.157717b0 Phases=2 Bus1="x2748840b.1.2" kV=0.208 Status="Variable" Model=1 Conn="wye" kW=5.84 PF=0.97 VMinpu=0.88
new Load.157718b0 Phases=2 Bus1="x3142099b.1.2" kV=0.208 Status="Variable" Model=1 Conn="wye" kW=9.73 PF=0.97 VMinpu=0.88
new Load.207286c0 Phases=2 Bus1="x3011298c.1.2" kV=0.208 Status="Variable" Model=1 Conn="wye" kW=4.07 PF=0.97 VMinpu=0.88
new Load.207287b0 Phases=2 Bus1="x2711234b.1.2" kV=0.208 Status="Variable" Model=1 Conn="wye" kW=9.73 PF=0.97 VMinpu=0.88
new Load.207288b0 Phases=2 Bus1="x3198355b.1.2" kV=0.208 Status="Variable" Model=1 Conn="wye" kW=3.89 PF=0.97 VMinpu=0.88
new Load.207290a0 Phases=2 Bus1="x2879773a.1.2" kV=0.208 Status="Variable" Model=1 Conn="wye" kW=8.869999999999999 PF=0.97 VMinpu=0.88
new Load.207291c0 Phases=2 Bus1="x2786274c.1.2" kV=0.208 Status="Variable" Model=1 Conn="wye" kW=10.17 PF=0.97 VMinpu=0.88
new Load.207292c0 Phases=2 Bus1="x3179682c.1.2" kV=0.208 Status="Variable" Model=1 Conn="wye" kW=6.1 PF=0.97 VMinpu=0.88
new Load.218472a0 Phases=2 Bus1="x2936270a.1.2" kV=0.208 Status="Variable" Model=1 Conn="wye" kW=8.869999999999999 PF=0.97 VMinpu=0.88
new Load.218473a0 Phases=2 Bus1="x3086078a.1.2" kV=0.208 Status="Variable" Model=1 Conn="wye" kW=8.869999999999999 PF=0.97 VMinpu=0.88
new Load.218474a0 Phases=2 Bus1="x3217056a.1.2" kV=0.208 Status="Variable" Model=1 Conn="wye" kW=17.74 PF=0.97 VMinpu=0.88
new Load.218475a0 Phases=2 Bus1="x3217057a.1.2" kV=0.208 Status="Variable" Model=1 Conn="wye" kW=3.55 PF=0.97 VMinpu=0.88
new Load.223655c0 Phases=2 Bus1="x2936268c.1.2" kV=0.208 Status="Variable" Model=1 Conn="wye" kW=6.1 PF=0.97 VMinpu=0.88
new Load.223658a0 Phases=2 Bus1="x2823592a.1.2" kV=0.208 Status="Variable" Model=1 Conn="wye" kW=1.77 PF=0.97 VMinpu=0.88
new Load.223660c0 Phases=2 Bus1="x3160863c.1.2" kV=0.208 Status="Variable" Model=1 Conn="wye" kW=6.1 PF=0.97 VMinpu=0.88
new Load.223661c0 Phases=2 Bus1="x2730108c.1.2" kV=0.208 Status="Variable" Model=1 Conn="wye" kW=6.1 PF=0.97 VMinpu=0.88
new Load.223662c0 Phases=2 Bus1="x2786204c.1.2" kV=0.208 Status="Variable" Model=1 Conn="wye" kW=15.26 PF=0.97 VMinpu=0.88
new Load.223663c0 Phases=2 Bus1="x2936216c.1.2" kV=0.208 Status="Variable" Model=1 Conn="wye" kW=4.07 PF=0.97 VMinpu=0.88
new Load.247036c0 Phases=2 Bus1="x3029498c.1.2" kV=0.208 Status="Variable" Model=1 Conn="wye" kW=4.07 PF=0.97 VMinpu=0.88
new Load.247056a0 Phases=2 Bus1="x2991912a.1.2" kV=0.208 Status="Variable" Model=1 Conn="wye" kW=5.32 PF=0.97 VMinpu=0.88
new Load.247057a0 Phases=2 Bus1="x3104128a.1.2" kV=0.208 Status="Variable" Model=1 Conn="wye" kW=5.32 PF=0.97 VMinpu=0.88
new Load.247058a0 Phases=2 Bus1="x2673315a.1.2" kV=0.208 Status="Variable" Model=1 Conn="wye" kW=3.55 PF=0.97 VMinpu=0.88
new Load.247059a0 Phases=2 Bus1="x2766721a.1.2" kV=0.208 Status="Variable" Model=1 Conn="wye" kW=8.869999999999999 PF=0.97 VMinpu=0.88
new Load.247060a0 Phases=2 Bus1="x2991906a.1.2" kV=0.208 Status="Variable" Model=1 Conn="wye" kW=3.55 PF=0.97 VMinpu=0.88
new Load.247061a0 Phases=2 Bus1="x2879054a.1.2" kV=0.208 Status="Variable" Model=1 Conn="wye" kW=8.869999999999999 PF=0.97 VMinpu=0.88
new Load.247084b0 Phases=2 Bus1="x3254211b.1.2" kV=0.208 Status="Variable" Model=1 Conn="wye" kW=9.73 PF=0.97 VMinpu=0.88
new Load.247100b0 Phases=2 Bus1="x2729407b.1.2" kV=0.208 Status="Variable" Model=1 Conn="wye" kW=5.84 PF=0.97 VMinpu=0.88
new Load.247105b0 Phases=2 Bus1="x2691942b.1.2" kV=0.208 Status="Variable" Model=1 Conn="wye" kW=5.84 PF=0.97 VMinpu=0.88
new Load.247122b0 Phases=2 Bus1="x3197629b.1.2" kV=0.208 Status="Variable" Model=1 Conn="wye" kW=5.84 PF=0.97 VMinpu=0.88
new Load.247126b0 Phases=2 Bus1="x2879065b.1.2" kV=0.208 Status="Variable" Model=1 Conn="wye" kW=3.89 PF=0.97 VMinpu=0.88
new Load.247160b0 Phases=2 Bus1="x0247160b.1.2" kV=0.208 Status="Variable" Model=1 Conn="wye" kW=5.84 PF=0.97 VMinpu=0.88
new Load.247162b0 Phases=2 Bus1="x0247162b.1.2" kV=0.208 Status="Variable" Model=1 Conn="wye" kW=5.84 PF=0.97 VMinpu=0.88
new Load.247164b0 Phases=2 Bus1="x2766732b.1.2" kV=0.208 Status="Variable" Model=1 Conn="wye" kW=3.89 PF=0.97 VMinpu=0.88
new Load.247170b0 Phases=2 Bus1="x2897784b.1.2" kV=0.208 Status="Variable" Model=1 Conn="wye" kW=14.59 PF=0.97 VMinpu=0.88
new Load.247171b0 Phases=2 Bus1="x0247171b.1.2" kV=0.208 Status="Variable" Model=1 Conn="wye" kW=5.84 PF=0.97 VMinpu=0.88
new Load.247184c0 Phases=2 Bus1="x2936279c.1.2" kV=0.208 Status="Variable" Model=1 Conn="wye" kW=10.17 PF=0.97 VMinpu=0.88
new Load.247185b0 Phases=2 Bus1="x3179678b.1.2" kV=0.208 Status="Variable" Model=1 Conn="wye" kW=5.84 PF=0.97 VMinpu=0.88
new Load.251828b0 Phases=2 Bus1="x3179650b.1.2" kV=0.208 Status="Variable" Model=1 Conn="wye" kW=5.84 PF=0.97 VMinpu=0.88
new Load.251855c0 Phases=2 Bus1="x2730107c.1.2" kV=0.208 Status="Variable" Model=1 Conn="wye" kW=10.17 PF=0.97 VMinpu=0.88
new Load.251856c0 Phases=2 Bus1="x3048888c.1.2" kV=0.208 Status="Variable" Model=1 Conn="wye" kW=6.1 PF=0.97 VMinpu=0.88
new Load.251857c0 Phases=2 Bus1="x3064514c.1.2" kV=0.208 Status="Variable" Model=1 Conn="wye" kW=6.1 PF=0.97 VMinpu=0.88
new Load.251858c0 Phases=2 Bus1="x2861158c.1.2" kV=0.208 Status="Variable" Model=1 Conn="wye" kW=10.17 PF=0.97 VMinpu=0.88
new Load.251859c0 Phases=2 Bus1="x2952007c.1.2" kV=0.208 Status="Variable" Model=1 Conn="wye" kW=10.17 PF=0.97 VMinpu=0.88
new Load.251862c0 Phases=2 Bus1="x3254873c.1.2" kV=0.208 Status="Variable" Model=1 Conn="wye" kW=6.1 PF=0.97 VMinpu=0.88
new Load.251863c0 Phases=2 Bus1="x2745811c.1.2" kV=0.208 Status="Variable" Model=1 Conn="wye" kW=10.17 PF=0.97 VMinpu=0.88
new Load.251865c0 Phases=2 Bus1="x3142050c.1.2" kV=0.208 Status="Variable" Model=1 Conn="wye" kW=6.1 PF=0.97 VMinpu=0.88
new Load.251867c0 Phases=2 Bus1="x2861157c.1.2" kV=0.208 Status="Variable" Model=1 Conn="wye" kW=10.17 PF=0.97 VMinpu=0.88
new Load.260457b0 Phases=2 Bus1="x3086079b.1.2" kV=0.208 Status="Variable" Model=1 Conn="wye" kW=3.89 PF=0.97 VMinpu=0.88
new Load.260458b0 Phases=2 Bus1="x2936276b.1.2" kV=0.208 Status="Variable" Model=1 Conn="wye" kW=3.89 PF=0.97 VMinpu=0.88
new Load.260461b0 Phases=2 Bus1="x2861223b.1.2" kV=0.208 Status="Variable" Model=1 Conn="wye" kW=9.73 PF=0.97 VMinpu=0.88
new Load.260463b0 Phases=2 Bus1="x3086075b.1.2" kV=0.208 Status="Variable" Model=1 Conn="wye" kW=5.84 PF=0.97 VMinpu=0.88
new Load.260464a0 Phases=2 Bus1="x2730187a.1.2" kV=0.208 Status="Variable" Model=1 Conn="wye" kW=13.3 PF=0.97 VMinpu=0.88
new Load.260467a0 Phases=2 Bus1="x3104856a.1.2" kV=0.208 Status="Variable" Model=1 Conn="wye" kW=5.32 PF=0.97 VMinpu=0.88
new Load.260473a0 Phases=2 Bus1="x2861222a.1.2" kV=0.208 Status="Variable" Model=1 Conn="wye" kW=13.3 PF=0.97 VMinpu=0.88
new Load.260474a0 Phases=2 Bus1="x2917330a.1.2" kV=0.208 Status="Variable" Model=1 Conn="wye" kW=8.869999999999999 PF=0.97 VMinpu=0.88
new Load.260475a0 Phases=2 Bus1="x2879794a.1.2" kV=0.208 Status="Variable" Model=1 Conn="wye" kW=13.3 PF=0.97 VMinpu=0.88
new Load.260476a0 Phases=2 Bus1="x2936271a.1.2" kV=0.208 Status="Variable" Model=1 Conn="wye" kW=5.32 PF=0.97 VMinpu=0.88
new Load.260479a0 Phases=2 Bus1="x2955074a.1.2" kV=0.208 Status="Variable" Model=1 Conn="wye" kW=13.3 PF=0.97 VMinpu=0.88
new Load.260480c0 Phases=2 Bus1="x3030199c.1.2" kV=0.208 Status="Variable" Model=1 Conn="wye" kW=10.17 PF=0.97 VMinpu=0.88
new Load.260481c0 Phases=2 Bus1="x2730163c.1.2" kV=0.208 Status="Variable" Model=1 Conn="wye" kW=10.17 PF=0.97 VMinpu=0.88
new Load.260484a0 Phases=2 Bus1="x2992624a.1.2" kV=0.208 Status="Variable" Model=1 Conn="wye" kW=5.32 PF=0.97 VMinpu=0.88
new Load.260487a0 Phases=2 Bus1="x2692654a.1.2" kV=0.208 Status="Variable" Model=1 Conn="wye" kW=5.32 PF=0.97 VMinpu=0.88
new Load.260488a0 Phases=2 Bus1="x2842379a.1.2" kV=0.208 Status="Variable" Model=1 Conn="wye" kW=13.3 PF=0.97 VMinpu=0.88
new Load.260491c0 Phases=2 Bus1="x2805031c.1.2" kV=0.208 Status="Variable" Model=1 Conn="wye" kW=15.26 PF=0.97 VMinpu=0.88
new Load.260494b0 Phases=2 Bus1="x3068944b.1.2" kV=0.208 Status="Variable" Model=1 Conn="wye" kW=14.59 PF=0.97 VMinpu=0.88
new Load.260495b0 Phases=2 Bus1="x2767407b.1.2" kV=0.208 Status="Variable" Model=1 Conn="wye" kW=3.89 PF=0.97 VMinpu=0.88
new Load.260496b0 Phases=2 Bus1="x2879767b.1.2" kV=0.208 Status="Variable" Model=1 Conn="wye" kW=3.89 PF=0.97 VMinpu=0.88
new Load.260500b0 Phases=2 Bus1="x2711224b.1.2" kV=0.208 Status="Variable" Model=1 Conn="wye" kW=3.89 PF=0.97 VMinpu=0.88
new Load.260501b0 Phases=2 Bus1="x3142098b.1.2" kV=0.208 Status="Variable" Model=1 Conn="wye" kW=9.73 PF=0.97 VMinpu=0.88
new Load.260502b0 Phases=2 Bus1="x2748839b.1.2" kV=0.208 Status="Variable" Model=1 Conn="wye" kW=3.89 PF=0.97 VMinpu=0.88
new Load.260503b0 Phases=2 Bus1="x2917310b.1.2" kV=0.208 Status="Variable" Model=1 Conn="wye" kW=5.84 PF=0.97 VMinpu=0.88
new Load.260505c0 Phases=2 Bus1="x2861218c.1.2" kV=0.208 Status="Variable" Model=1 Conn="wye" kW=10.17 PF=0.97 VMinpu=0.88
new Load.260508a0 Phases=2 Bus1="x2955081a.1.2" kV=0.208 Status="Variable" Model=1 Conn="wye" kW=5.32 PF=0.97 VMinpu=0.88
new Load.260511c0 Phases=2 Bus1="x3160878c.1.2" kV=0.208 Status="Variable" Model=1 Conn="wye" kW=6.1 PF=0.97 VMinpu=0.88
new Load.260513c0 Phases=2 Bus1="x2917336c.1.2" kV=0.208 Status="Variable" Model=1 Conn="wye" kW=6.1 PF=0.97 VMinpu=0.88
new Load.260514c0 Phases=2 Bus1="x2674047c.1.2" kV=0.208 Status="Variable" Model=1 Conn="wye" kW=6.1 PF=0.97 VMinpu=0.88
new Load.260515a0 Phases=2 Bus1="x3160865a.1.2" kV=0.208 Status="Variable" Model=1 Conn="wye" kW=8.869999999999999 PF=0.97 VMinpu=0.88
new Load.260517c0 Phases=2 Bus1="x2767408c.1.2" kV=0.208 Status="Variable" Model=1 Conn="wye" kW=6.1 PF=0.97 VMinpu=0.88
new Load.260518c0 Phases=2 Bus1="x3104853c.1.2" kV=0.208 Status="Variable" Model=1 Conn="wye" kW=10.17 PF=0.97 VMinpu=0.88
new Load.260520b0 Phases=2 Bus1="x3254915b.1.2" kV=0.208 Status="Variable" Model=1 Conn="wye" kW=1.95 PF=0.97 VMinpu=0.88
new Load.260521b0 Phases=2 Bus1="x3048963b.1.2" kV=0.208 Status="Variable" Model=1 Conn="wye" kW=5.84 PF=0.97 VMinpu=0.88
new Load.260527b0 Phases=2 Bus1="x2711226b.1.2" kV=0.208 Status="Variable" Model=1 Conn="wye" kW=9.73 PF=0.97 VMinpu=0.88
new Load.260528c0 Phases=2 Bus1="x3217052c.1.2" kV=0.208 Status="Variable" Model=1 Conn="wye" kW=10.17 PF=0.97 VMinpu=0.88
new Load.260529c0 Phases=2 Bus1="x3217053c.1.2" kV=0.208 Status="Variable" Model=1 Conn="wye" kW=4.07 PF=0.97 VMinpu=0.88
new Load.260532c0 Phases=2 Bus1="x3086074c.1.2" kV=0.208 Status="Variable" Model=1 Conn="wye" kW=6.1 PF=0.97 VMinpu=0.88
new Load.260535c0 Phases=2 Bus1="x3067507c.1.2" kV=0.208 Status="Variable" Model=1 Conn="wye" kW=15.26 PF=0.97 VMinpu=0.88
new Load.260542a0 Phases=2 Bus1="x2955078a.1.2" kV=0.208 Status="Variable" Model=1 Conn="wye" kW=8.869999999999999 PF=0.97 VMinpu=0.88
new Load.260543c0 Phases=2 Bus1="x2955077c.1.2" kV=0.208 Status="Variable" Model=1 Conn="wye" kW=10.17 PF=0.97 VMinpu=0.88
new Load.260551c0 Phases=2 Bus1="x3160872c.1.2" kV=0.208 Status="Variable" Model=1 Conn="wye" kW=15.26 PF=0.97 VMinpu=0.88
new Load.260552a0 Phases=2 Bus1="x3198348a.1.2" kV=0.208 Status="Variable" Model=1 Conn="wye" kW=17.74 PF=0.97 VMinpu=0.88
new Load.260553c0 Phases=2 Bus1="x2711225c.1.2" kV=0.208 Status="Variable" Model=1 Conn="wye" kW=6.1 PF=0.97 VMinpu=0.88
new Load.260554c0 Phases=2 Bus1="x3030200c.1.2" kV=0.208 Status="Variable" Model=1 Conn="wye" kW=6.1 PF=0.97 VMinpu=0.88
new Load.260555a0 Phases=2 Bus1="x3048962a.1.2" kV=0.208 Status="Variable" Model=1 Conn="wye" kW=13.3 PF=0.97 VMinpu=0.88
new Load.260558c0 Phases=2 Bus1="x3160861c.1.2" kV=0.208 Status="Variable" Model=1 Conn="wye" kW=4.07 PF=0.97 VMinpu=0.88
new Load.260561c0 Phases=2 Bus1="x3104850c.1.2" kV=0.208 Status="Variable" Model=1 Conn="wye" kW=10.17 PF=0.97 VMinpu=0.88
new Load.260562a0 Phases=2 Bus1="x3251799a.1.2" kV=0.208 Status="Variable" Model=1 Conn="wye" kW=13.3 PF=0.97 VMinpu=0.88
new Load.260567c0 Phases=2 Bus1="x2936211c.1.2" kV=0.208 Status="Variable" Model=1 Conn="wye" kW=6.1 PF=0.97 VMinpu=0.88
new Load.260568c0 Phases=2 Bus1="x2842329c.1.2" kV=0.208 Status="Variable" Model=1 Conn="wye" kW=6.1 PF=0.97 VMinpu=0.88
new Load.260569c0 Phases=2 Bus1="x3104796c.1.2" kV=0.208 Status="Variable" Model=1 Conn="wye" kW=10.17 PF=0.97 VMinpu=0.88
new Load.260572c0 Phases=2 Bus1="x3236004c.1.2" kV=0.208 Status="Variable" Model=1 Conn="wye" kW=6.1 PF=0.97 VMinpu=0.88
new Load.260573c0 Phases=2 Bus1="x3160896c.1.2" kV=0.208 Status="Variable" Model=1 Conn="wye" kW=6.1 PF=0.97 VMinpu=0.88
new Load.260574c0 Phases=2 Bus1="x3123452c.1.2" kV=0.208 Status="Variable" Model=1 Conn="wye" kW=10.17 PF=0.97 VMinpu=0.88
new Load.260575b0 Phases=2 Bus1="x3254869b.1.2" kV=0.208 Status="Variable" Model=1 Conn="wye" kW=5.84 PF=0.97 VMinpu=0.88
new Load.260576c0 Phases=2 Bus1="x3030126c.1.2" kV=0.208 Status="Variable" Model=1 Conn="wye" kW=10.17 PF=0.97 VMinpu=0.88
new Load.260577c0 Phases=2 Bus1="x2767341c.1.2" kV=0.208 Status="Variable" Model=1 Conn="wye" kW=15.26 PF=0.97 VMinpu=0.88
new Load.260581c0 Phases=2 Bus1="x3254870c.1.2" kV=0.208 Status="Variable" Model=1 Conn="wye" kW=10.17 PF=0.97 VMinpu=0.88
new Load.260586b0 Phases=2 Bus1="x3048887b.1.2" kV=0.208 Status="Variable" Model=1 Conn="wye" kW=14.59 PF=0.97 VMinpu=0.88
new Load.260589b0 Phases=2 Bus1="x2955005b.1.2" kV=0.208 Status="Variable" Model=1 Conn="wye" kW=5.84 PF=0.97 VMinpu=0.88
new Load.260590b0 Phases=2 Bus1="x3216988b.1.2" kV=0.208 Status="Variable" Model=1 Conn="wye" kW=9.73 PF=0.97 VMinpu=0.88
new Load.260591b0 Phases=2 Bus1="x3179607b.1.2" kV=0.208 Status="Variable" Model=1 Conn="wye" kW=9.73 PF=0.97 VMinpu=0.88
new Load.260594a0 Phases=2 Bus1="x2898457a.1.2" kV=0.208 Status="Variable" Model=1 Conn="wye" kW=3.55 PF=0.97 VMinpu=0.88
new Load.260595a0 Phases=2 Bus1="x2767340a.1.2" kV=0.208 Status="Fixed" Model=1 Conn="wye" kW=26.6 PF=0.97 VMinpu=0.88
new Load.260595b0 Phases=2 Bus1="x2767340b.1.2" kV=0.208 Status="Fixed" Model=1 Conn="wye" kW=29.18 PF=0.97 VMinpu=0.88
new Load.260595c0 Phases=2 Bus1="x2767340c.1.2" kV=0.208 Status="Fixed" Model=1 Conn="wye" kW=30.52 PF=0.97 VMinpu=0.88
new Load.260598a0 Phases=2 Bus1="x3067478a.1.2" kV=0.208 Status="Variable" Model=1 Conn="wye" kW=13.3 PF=0.97 VMinpu=0.88
new Load.260601c0 Phases=2 Bus1="x2730149c.1.2" kV=0.208 Status="Variable" Model=1 Conn="wye" kW=6.1 PF=0.97 VMinpu=0.88
new Load.260602b0 Phases=2 Bus1="x2989566b.1.2" kV=0.208 Status="Variable" Model=1 Conn="wye" kW=5.84 PF=0.97 VMinpu=0.88
new Load.260605a0 Phases=2 Bus1="x2973791a.1.2" kV=0.208 Status="Variable" Model=1 Conn="wye" kW=17.74 PF=0.97 VMinpu=0.88
new Load.260607b0 Phases=2 Bus1="x3029055b.1.2" kV=0.208 Status="Variable" Model=1 Conn="wye" kW=14.59 PF=0.97 VMinpu=0.88
new Load.260620c0 Phases=2 Bus1="x3067506c.1.2" kV=0.208 Status="Variable" Model=1 Conn="wye" kW=4.07 PF=0.97 VMinpu=0.88
...
